tests/data/upgrade-models/sb10_p7uhs7_1247_trans_301/p7udt173/PVDeployments/sb10_p7uhs7_1247_trans_301__p7udt173__random__7__85.dss
Redirect ../OpenDSS/Master.dss

// PV Scenario for 2893.6259752546425 kW total size, Scenario type random, Sample 7 and penetration 85% (PV to load ratio) 
! =====================PV SCENARIO FILE==============================
New PVSystem.small_p7ulv3615_1_2_pv phases=1 bus1=p7ulv3615.1.2 kv=0.2402 irradiance=1 Pmpp=39.165 %Pmpp=100 kVA=39.165 conn=wye %cutin=0.1 %cutout=0.1 Vmaxpu=1.2
New PVSystem.small_p7ulv7295_1_2_pv phases=1 bus1=p7ulv7295.1.2 kv=0.2402 irradiance=1 Pmpp=11.785 %Pmpp=100 kVA=11.785 conn=wye %cutin=0.1 %cutout=0.1 Vmaxpu=1.2
New PVSystem.small_p7ulv1445_1_2_pv phases=1 bus1=p7ulv1445.1.2 kv=0.2402 irradiance=1 Pmpp=13.015 %Pmpp=100 kVA=13.015 conn=wye %cutin=0.1 %cutout=0.1 Vmaxpu=1.2
New PVSystem.small_p7ulv27163_1_2_pv phases=1 bus1=p7ulv27163.1.2 kv=0.2402 irradiance=1 Pmpp=40.515 %Pmpp=100 kVA=40.515 conn=wye %cutin=0.1 %cutout=0.1 Vmaxpu=1.2
New PVSystem.small_p7ulv12372_1_2_pv phases=1 bus1=p7ulv12372.1.2 kv=0.2402 irradiance=1 Pmpp=5.612 %Pmpp=100 kVA=5.612 conn=wye %cutin=0.1 %cutout=0.1 Vmaxpu=1.2
New PVSystem.small_p7ulv435_1_2_pv phases=1 bus1=p7ulv435.1.2 kv=0.2402 irradiance=1 Pmpp=10.219 %Pmpp=100 kVA=10.219 conn=wye %cutin=0.1 %cutout=0.1 Vmaxpu=1.2
New PVSystem.small_p7ulv4139_1_2_pv phases=1 bus1=p7ulv4139.1.2 kv=0.2402 irradiance=1 Pmpp=11.883 %Pmpp=100 kVA=11.883 conn=wye %cutin=0.1 %cutout=0.1 Vmaxpu=1.2
New PVSystem.small_p7ulv49_1_2_pv phases=1 bus1=p7ulv49.1.2 kv=0.2402 irradiance=1 Pmpp=25.954 %Pmpp=100 kVA=25.954 conn=wye %cutin=0.1 %cutout=0.1 Vmaxpu=1.2
New PVSystem.small_p7ulv27350_1_2_pv phases=1 bus1=p7ulv27350.1.2 kv=0.2402 irradiance=1 Pmpp=30.018 %Pmpp=100 kVA=30.018 conn=wye %cutin=0.1 %cutout=0.1 Vmaxpu=1.2
New PVSystem.small_p7ulv27284_1_2_pv phases=1 bus1=p7ulv27284.1.2 kv=0.2402 irradiance=1 Pmpp=14.4 %Pmpp=100 kVA=14.4 conn=wye %cutin=0.1 %cutout=0.1 Vmaxpu=1.2
New PVSystem.small_p7ulv4122_1_2_pv phases=1 bus1=p7ulv4122.1.2 kv=0.2402 irradiance=1 Pmpp=7.713 %Pmpp=100 kVA=7.713 conn=wye %cutin=0.1 %cutout=0.1 Vmaxpu=1.2
New PVSystem.small_p7ulv27128_1_2_3_pv phases=3 bus1=p7ulv27128.1.2.3 kv=0.48 irradiance=1 Pmpp=128.961 %Pmpp=100 kVA=128.961 conn=wye %cutin=0.1 %cutout=0.1 Vmaxpu=1.2
New PVSystem.small_p7ulv4103_1_2_pv phases=1 bus1=p7ulv4103.1.2 kv=0.2402 irradiance=1 Pmpp=4.791 %Pmpp=100 kVA=4.791 conn=wye %cutin=0.1 %cutout=0.1 Vmaxpu=1.2
New PVSystem.small_p7ulv7300_1_2_pv phases=1 bus1=p7ulv7300.1.2 kv=0.2402 irradiance=1 Pmpp=12.632 %Pmpp=100 kVA=12.632 conn=wye %cutin=0.1 %cutout=0.1 Vmaxpu=1.2
New PVSystem.small_p7ulv27412_1_2_pv phases=1 bus1=p7ulv27412.1.2 kv=0.2402 irradiance=1 Pmpp=30.018 %Pmpp=100 kVA=30.018 conn=wye %cutin=0.1 %cutout=0.1 Vmaxpu=1.2
New PVSystem.small_p7ulv27394_1_2_pv phases=1 bus1=p7ulv27394.1.2 kv=0.2402 irradiance=1 Pmpp=13.905 %Pmpp=100 kVA=13.905 conn=wye %cutin=0.1 %cutout=0.1 Vmaxpu=1.2
New PVSystem.small_p7ulv27275_1_2_pv phases=1 bus1=p7ulv27275.1.2 kv=0.2402 irradiance=1 Pmpp=8.16 %Pmpp=100 kVA=8.16 conn=wye %cutin=0.1 %cutout=0.1 Vmaxpu=1.2
New PVSystem.small_p7ulv43_1_2_pv phases=1 bus1=p7ulv43.1.2 kv=0.2402 irradiance=1 Pmpp=64.502 %Pmpp=100 kVA=64.502 conn=wye %cutin=0.1 %cutout=0.1 Vmaxpu=1.2
New PVSystem.small_p7ulv27257_1_2_pv phases=1 bus1=p7ulv27257.1.2 kv=0.2402 irradiance=1 Pmpp=8.513 %Pmpp=100 kVA=8.513 conn=wye %cutin=0.1 %cutout=0.1 Vmaxpu=1.2
New PVSystem.small_p7ulv456_1_2_pv phases=1 bus1=p7ulv456.1.2 kv=0.2402 irradiance=1 Pmpp=3.242 %Pmpp=100 kVA=3.242 conn=wye %cutin=0.1 %cutout=0.1 Vmaxpu=1.2
New PVSystem.small_p7ulv1436_1_2_pv phases=1 bus1=p7ulv1436.1.2 kv=0.2402 irradiance=1 Pmpp=2.43 %Pmpp=100 kVA=2.43 conn=wye %cutin=0.1 %cutout=0.1 Vmaxpu=1.2
New PVSystem.small_p7ulv3431_1_2_pv phases=1 bus1=p7ulv3431.1.2 kv=0.2402 irradiance=1 Pmpp=6.212 %Pmpp=100 kVA=6.212 conn=wye %cutin=0.1 %cutout=0.1 Vmaxpu=1.2
New PVSystem.small_p7ulv35644_1_2_pv phases=1 bus1=p7ulv35644.1.2 kv=0.2402 irradiance=1 Pmpp=13.49 %Pmpp=100 kVA=13.49 conn=wye %cutin=0.1 %cutout=0.1 Vmaxpu=1.2
New PVSystem.small_p7ulv32_1_2_pv phases=1 bus1=p7ulv32.1.2 kv=0.2402 irradiance=1 Pmpp=66.549 %Pmpp=100 kVA=66.549 conn=wye %cutin=0.1 %cutout=0.1 Vmaxpu=1.2
New PVSystem.small_p7ulv4167_1_2_pv phases=1 bus1=p7ulv4167.1.2 kv=0.2402 irradiance=1 Pmpp=14.548 %Pmpp=100 kVA=14.548 conn=wye %cutin=0.1 %cutout=0.1 Vmaxpu=1.2
New PVSystem.small_p7ulv27489_1_2_pv phases=1 bus1=p7ulv27489.1.2 kv=0.2402 irradiance=1 Pmpp=14.532 %Pmpp=100 kVA=14.532 conn=wye %cutin=0.1 %cutout=0.1 Vmaxpu=1.2
New PVSystem.small_p7ulv12470_1_2_pv phases=1 bus1=p7ulv12470.1.2 kv=0.2402 irradiance=1 Pmpp=8.934 %Pmpp=100 kVA=8.934 conn=wye %cutin=0.1 %cutout=0.1 Vmaxpu=1.2
New PVSystem.small_p7ulv27390_1_2_pv phases=1 bus1=p7ulv27390.1.2 kv=0.2402 irradiance=1 Pmpp=6.212 %Pmpp=100 kVA=6.212 conn=wye %cutin=0.1 %cutout=0.1 Vmaxpu=1.2
New PVSystem.small_p7ulv28_1_2_pv phases=1 bus1=p7ulv28.1.2 kv=0.2402 irradiance=1 Pmpp=21.448 %Pmpp=100 kVA=21.448 conn=wye %cutin=0.1 %cutout=0.1 Vmaxpu=1.2
New PVSystem.small_p7ulv27339_1_2_pv phases=1 bus1=p7ulv27339.1.2 kv=0.2402 irradiance=1 Pmpp=9.873 %Pmpp=100 kVA=9.873 conn=wye %cutin=0.1 %cutout=0.1 Vmaxpu=1.2
New PVSystem.small_p7ulv27137_1_2_pv phases=1 bus1=p7ulv27137.1.2 kv=0.2402 irradiance=1 Pmpp=23.958 %Pmpp=100 kVA=23.958 conn=wye %cutin=0.1 %cutout=0.1 Vmaxpu=1.2
New PVSystem.small_p7ulv27240_1_2_pv phases=1 bus1=p7ulv27240.1.2 kv=0.2402 irradiance=1 Pmpp=7.463 %Pmpp=100 kVA=7.463 conn=wye %cutin=0.1 %cutout=0.1 Vmaxpu=1.2
New PVSystem.small_p7ulv4197_1_2_pv phases=1 bus1=p7ulv4197.1.2 kv=0.2402 irradiance=1 Pmpp=27.452 %Pmpp=100 kVA=27.452 conn=wye %cutin=0.1 %cutout=0.1 Vmaxpu=1.2
New PVSystem.small_p7ulv6816_1_2_pv phases=1 bus1=p7ulv6816.1.2 kv=0.2402 irradiance=1 Pmpp=8.333 %Pmpp=100 kVA=8.333 conn=wye %cutin=0.1 %cutout=0.1 Vmaxpu=1.2
New PVSystem.small_p7ulv3885_1_2_pv phases=1 bus1=p7ulv3885.1.2 kv=0.2402 irradiance=1 Pmpp=9.597 %Pmpp=100 kVA=9.597 conn=wye %cutin=0.1 %cutout=0.1 Vmaxpu=1.2
New PVSystem.small_p7ulv68_1_2_pv phases=1 bus1=p7ulv68.1.2 kv=0.2402 irradiance=1 Pmpp=31.79 %Pmpp=100 kVA=31.79 conn=wye %cutin=0.1 %cutout=0.1 Vmaxpu=1.2
New PVSystem.small_p7ulv40_1_2_pv phases=1 bus1=p7ulv40.1.2 kv=0.2402 irradiance=1 Pmpp=16.825 %Pmpp=100 kVA=16.825 conn=wye %cutin=0.1 %cutout=0.1 Vmaxpu=1.2
New PVSystem.small_p7ulv3895_1_2_pv phases=1 bus1=p7ulv3895.1.2 kv=0.2402 irradiance=1 Pmpp=24.408 %Pmpp=100 kVA=24.408 conn=wye %cutin=0.1 %cutout=0.1 Vmaxpu=1.2
New PVSystem.small_p7ulv7305_1_2_pv phases=1 bus1=p7ulv7305.1.2 kv=0.2402 irradiance=1 Pmpp=13.929 %Pmpp=100 kVA=13.929 conn=wye %cutin=0.1 %cutout=0.1 Vmaxpu=1.2
New PVSystem.small_p7ulv4115_1_2_pv phases=1 bus1=p7ulv4115.1.2 kv=0.2402 irradiance=1 Pmpp=32.243 %Pmpp=100 kVA=32.243 conn=wye %cutin=0.1 %cutout=0.1 Vmaxpu=1.2
New PVSystem.small_p7ulv11610_1_2_pv phases=1 bus1=p7ulv11610.1.2 kv=0.2402 irradiance=1 Pmpp=24.195 %Pmpp=100 kVA=24.195 conn=wye %cutin=0.1 %cutout=0.1 Vmaxpu=1.2
New PVSystem.small_p7ulv11609_1_2_pv phases=1 bus1=p7ulv11609.1.2 kv=0.2402 irradiance=1 Pmpp=25.035 %Pmpp=100 kVA=25.035 conn=wye %cutin=0.1 %cutout=0.1 Vmaxpu=1.2
New PVSystem.small_p7ulv1443_1_2_pv phases=1 bus1=p7ulv1443.1.2 kv=0.2402 irradiance=1 Pmpp=4.791 %Pmpp=100 kVA=4.791 conn=wye %cutin=0.1 %cutout=0.1 Vmaxpu=1.2
New PVSystem.small_p7ulv11516_1_2_pv phases=1 bus1=p7ulv11516.1.2 kv=0.2402 irradiance=1 Pmpp=4.385 %Pmpp=100 kVA=4.385 conn=wye %cutin=0.1 %cutout=0.1 Vmaxpu=1.2
New PVSystem.small_p7ulv4152_1_2_pv phases=1 bus1=p7ulv4152.1.2 kv=0.2402 irradiance=1 Pmpp=12.038 %Pmpp=100 kVA=12.038 conn=wye %cutin=0.1 %cutout=0.1 Vmaxpu=1.2
New PVSystem.small_p7ulv469_1_2_pv phases=1 bus1=p7ulv469.1.2 kv=0.2402 irradiance=1 Pmpp=28.161 %Pmpp=100 kVA=28.161 conn=wye %cutin=0.1 %cutout=0.1 Vmaxpu=1.2
New PVSystem.small_p7ulv4105_1_2_pv phases=1 bus1=p7ulv4105.1.2 kv=0.2402 irradiance=1 Pmpp=15.103 %Pmpp=100 kVA=15.103 conn=wye %cutin=0.1 %cutout=0.1 Vmaxpu=1.2
New PVSystem.small_p7ulv27439_1_2_pv phases=1 bus1=p7ulv27439.1.2 kv=0.2402 irradiance=1 Pmpp=8.102 %Pmpp=100 kVA=8.102 conn=wye %cutin=0.1 %cutout=0.1 Vmaxpu=1.2
New PVSystem.small_p7ulv27424_1_2_pv phases=1 bus1=p7ulv27424.1.2 kv=0.2402 irradiance=1 Pmpp=11.622 %Pmpp=100 kVA=11.622 conn=wye %cutin=0.1 %cutout=0.1 Vmaxpu=1.2
New PVSystem.small_p7ulv1381_1_2_pv phases=1 bus1=p7ulv1381.1.2 kv=0.2402 irradiance=1 Pmpp=9.321 %Pmpp=100 kVA=9.321 conn=wye %cutin=0.1 %cutout=0.1 Vmaxpu=1.2
New PVSystem.small_p7ulv27155_1_2_pv phases=1 bus1=p7ulv27155.1.2 kv=0.2402 irradiance=1 Pmpp=14.105 %Pmpp=100 kVA=14.105 conn=wye %cutin=0.1 %cutout=0.1 Vmaxpu=1.2
New PVSystem.small_p7ulv3916_1_2_pv phases=1 bus1=p7ulv3916.1.2 kv=0.2402 irradiance=1 Pmpp=6.951 %Pmpp=100 kVA=6.951 conn=wye %cutin=0.1 %cutout=0.1 Vmaxpu=1.2
New PVSystem.small_p7ulv27154_1_2_pv phases=1 bus1=p7ulv27154.1.2 kv=0.2402 irradiance=1 Pmpp=13.728 %Pmpp=100 kVA=13.728 conn=wye %cutin=0.1 %cutout=0.1 Vmaxpu=1.2
New PVSystem.small_p7ulv7297_1_2_pv phases=1 bus1=p7ulv7297.1.2 kv=0.2402 irradiance=1 Pmpp=23.884 %Pmpp=100 kVA=23.884 conn=wye %cutin=0.1 %cutout=0.1 Vmaxpu=1.2
New PVSystem.small_p7ulv27319_1_2_pv phases=1 bus1=p7ulv27319.1.2 kv=0.2402 irradiance=1 Pmpp=10.219 %Pmpp=100 kVA=10.219 conn=wye %cutin=0.1 %cutout=0.1 Vmaxpu=1.2
New PVSystem.small_p7ulv3632_1_2_pv phases=1 bus1=p7ulv3632.1.2 kv=0.2402 irradiance=1 Pmpp=64.045 %Pmpp=100 kVA=64.045 conn=wye %cutin=0.1 %cutout=0.1 Vmaxpu=1.2
New PVSystem.small_p7ulv3651_1_2_pv phases=1 bus1=p7ulv3651.1.2 kv=0.2402 irradiance=1 Pmpp=18.299 %Pmpp=100 kVA=18.299 conn=wye %cutin=0.1 %cutout=0.1 Vmaxpu=1.2
New PVSystem.small_p7ulv432_1_2_pv phases=1 bus1=p7ulv432.1.2 kv=0.2402 irradiance=1 Pmpp=4.791 %Pmpp=100 kVA=4.791 conn=wye %cutin=0.1 %cutout=0.1 Vmaxpu=1.2
New PVSystem.small_p7ulv27353_1_2_pv phases=1 bus1=p7ulv27353.1.2 kv=0.2402 irradiance=1 Pmpp=24.198 %Pmpp=100 kVA=24.198 conn=wye %cutin=0.1 %cutout=0.1 Vmaxpu=1.2
New PVSystem.small_p7ulv4212_1_2_pv phases=1 bus1=p7ulv4212.1.2 kv=0.2402 irradiance=1 Pmpp=12.04 %Pmpp=100 kVA=12.04 conn=wye %cutin=0.1 %cutout=0.1 Vmaxpu=1.2
New PVSystem.small_p7ulv4181_1_2_pv phases=1 bus1=p7ulv4181.1.2 kv=0.2402 irradiance=1 Pmpp=6.281 %Pmpp=100 kVA=6.281 conn=wye %cutin=0.1 %cutout=0.1 Vmaxpu=1.2
New PVSystem.small_p7ulv434_1_2_pv phases=1 bus1=p7ulv434.1.2 kv=0.2402 irradiance=1 Pmpp=10.135 %Pmpp=100 kVA=10.135 conn=wye %cutin=0.1 %cutout=0.1 Vmaxpu=1.2
New PVSystem.small_p7ulv1435_1_2_pv phases=1 bus1=p7ulv1435.1.2 kv=0.2402 irradiance=1 Pmpp=7.526 %Pmpp=100 kVA=7.526 conn=wye %cutin=0.1 %cutout=0.1 Vmaxpu=1.2
New PVSystem.small_p7ulv431_1_2_pv phases=1 bus1=p7ulv431.1.2 kv=0.2402 irradiance=1 Pmpp=9.563 %Pmpp=100 kVA=9.563 conn=wye %cutin=0.1 %cutout=0.1 Vmaxpu=1.2
New PVSystem.small_p7ulv55_1_2_pv phases=1 bus1=p7ulv55.1.2 kv=0.2402 irradiance=1 Pmpp=7.699 %Pmpp=100 kVA=7.699 conn=wye %cutin=0.1 %cutout=0.1 Vmaxpu=1.2
New PVSystem.small_p7ulv27449_1_2_pv phases=1 bus1=p7ulv27449.1.2 kv=0.2402 irradiance=1 Pmpp=32.495 %Pmpp=100 kVA=32.495 conn=wye %cutin=0.1 %cutout=0.1 Vmaxpu=1.2
New PVSystem.small_p7ulv4117_1_2_pv phases=1 bus1=p7ulv4117.1.2 kv=0.2402 irradiance=1 Pmpp=19.615 %Pmpp=100 kVA=19.615 conn=wye %cutin=0.1 %cutout=0.1 Vmaxpu=1.2
New PVSystem.small_p7ulv27465_1_2_pv phases=1 bus1=p7ulv27465.1.2 kv=0.2402 irradiance=1 Pmpp=7.413 %Pmpp=100 kVA=7.413 conn=wye %cutin=0.1 %cutout=0.1 Vmaxpu=1.2
New PVSystem.small_p7ulv27503_1_2_pv phases=1 bus1=p7ulv27503.1.2 kv=0.2402 irradiance=1 Pmpp=5.799 %Pmpp=100 kVA=5.799 conn=wye %cutin=0.1 %cutout=0.1 Vmaxpu=1.2
New PVSystem.small_p7ulv27331_1_2_pv phases=1 bus1=p7ulv27331.1.2 kv=0.2402 irradiance=1 Pmpp=7.085 %Pmpp=100 kVA=7.085 conn=wye %cutin=0.1 %cutout=0.1 Vmaxpu=1.2
New PVSystem.small_p7ulv11576_1_2_pv phases=1 bus1=p7ulv11576.1.2 kv=0.2402 irradiance=1 Pmpp=8.62 %Pmpp=100 kVA=8.62 conn=wye %cutin=0.1 %cutout=0.1 Vmaxpu=1.2
New PVSystem.small_p7ulv27267_1_2_pv phases=1 bus1=p7ulv27267.1.2 kv=0.2402 irradiance=1 Pmpp=7.705 %Pmpp=100 kVA=7.705 conn=wye %cutin=0.1 %cutout=0.1 Vmaxpu=1.2
New PVSystem.small_p7ulv12371_1_2_pv phases=1 bus1=p7ulv12371.1.2 kv=0.2402 irradiance=1 Pmpp=10.76 %Pmpp=100 kVA=10.76 conn=wye %cutin=0.1 %cutout=0.1 Vmaxpu=1.2
New PVSystem.small_p7ulv7304_1_2_pv phases=1 bus1=p7ulv7304.1.2 kv=0.2402 irradiance=1 Pmpp=7.789 %Pmpp=100 kVA=7.789 conn=wye %cutin=0.1 %cutout=0.1 Vmaxpu=1.2
New PVSystem.small_p7ulv27386_1_2_pv phases=1 bus1=p7ulv27386.1.2 kv=0.2402 irradiance=1 Pmpp=25.187 %Pmpp=100 kVA=25.187 conn=wye %cutin=0.1 %cutout=0.1 Vmaxpu=1.2
New PVSystem.small_p7ulv447_1_2_pv phases=1 bus1=p7ulv447.1.2 kv=0.2402 irradiance=1 Pmpp=2.195 %Pmpp=100 kVA=2.195 conn=wye %cutin=0.1 %cutout=0.1 Vmaxpu=1.2
New PVSystem.small_p7ulv27354_1_2_pv phases=1 bus1=p7ulv27354.1.2 kv=0.2402 irradiance=1 Pmpp=3.242 %Pmpp=100 kVA=3.242 conn=wye %cutin=0.1 %cutout=0.1 Vmaxpu=1.2
New PVSystem.small_p7ulv13502_1_2_pv phases=1 bus1=p7ulv13502.1.2 kv=0.2402 irradiance=1 Pmpp=13.763 %Pmpp=100 kVA=13.763 conn=wye %cutin=0.1 %cutout=0.1 Vmaxpu=1.2
New PVSystem.small_p7ulv4079_1_2_pv phases=1 bus1=p7ulv4079.1.2 kv=0.2402 irradiance=1 Pmpp=27.351 %Pmpp=100 kVA=27.351 conn=wye %cutin=0.1 %cutout=0.1 Vmaxpu=1.2
New PVSystem.small_p7ulv4102_1_2_pv phases=1 bus1=p7ulv4102.1.2 kv=0.2402 irradiance=1 Pmpp=19.682 %Pmpp=100 kVA=19.682 conn=wye %cutin=0.1 %cutout=0.1 Vmaxpu=1.2
New PVSystem.small_p7ulv436_1_2_pv phases=1 bus1=p7ulv436.1.2 kv=0.2402 irradiance=1 Pmpp=18.435 %Pmpp=100 kVA=18.435 conn=wye %cutin=0.1 %cutout=0.1 Vmaxpu=1.2
New PVSystem.small_p7ulv27391_1_2_pv phases=1 bus1=p7ulv27391.1.2 kv=0.2402 irradiance=1 Pmpp=27.777 %Pmpp=100 kVA=27.777 conn=wye %cutin=0.1 %cutout=0.1 Vmaxpu=1.2
New PVSystem.small_p7ulv11513_1_2_pv phases=1 bus1=p7ulv11513.1.2 kv=0.2402 irradiance=1 Pmpp=1.914 %Pmpp=100 kVA=1.914 conn=wye %cutin=0.1 %cutout=0.1 Vmaxpu=1.2
New PVSystem.small_p7ulv69_1_2_pv phases=1 bus1=p7ulv69.1.2 kv=0.2402 irradiance=1 Pmpp=17.766 %Pmpp=100 kVA=17.766 conn=wye %cutin=0.1 %cutout=0.1 Vmaxpu=1.2
New PVSystem.small_p7ulv16_1_2_pv phases=1 bus1=p7ulv16.1.2 kv=0.2402 irradiance=1 Pmpp=17.766 %Pmpp=100 kVA=17.766 conn=wye %cutin=0.1 %cutout=0.1 Vmaxpu=1.2
New PVSystem.small_p7ulv25_1_2_pv phases=1 bus1=p7ulv25.1.2 kv=0.2402 irradiance=1 Pmpp=28.161 %Pmpp=100 kVA=28.161 conn=wye %cutin=0.1 %cutout=0.1 Vmaxpu=1.2
New PVSystem.small_p7ulv4143_1_2_pv phases=1 bus1=p7ulv4143.1.2 kv=0.2402 irradiance=1 Pmpp=18.569 %Pmpp=100 kVA=18.569 conn=wye %cutin=0.1 %cutout=0.1 Vmaxpu=1.2
New PVSystem.small_p7ulv11578_1_2_pv phases=1 bus1=p7ulv11578.1.2 kv=0.2402 irradiance=1 Pmpp=5.769 %Pmpp=100 kVA=5.769 conn=wye %cutin=0.1 %cutout=0.1 Vmaxpu=1.2
New PVSystem.small_p7ulv4203_1_2_pv phases=1 bus1=p7ulv4203.1.2 kv=0.2402 irradiance=1 Pmpp=2.195 %Pmpp=100 kVA=2.195 conn=wye %cutin=0.1 %cutout=0.1 Vmaxpu=1.2
New PVSystem.small_p7ulv6609_1_2_pv phases=1 bus1=p7ulv6609.1.2 kv=0.2402 irradiance=1 Pmpp=27.777 %Pmpp=100 kVA=27.777 conn=wye %cutin=0.1 %cutout=0.1 Vmaxpu=1.2
New PVSystem.small_p7ulv1376_1_2_pv phases=1 bus1=p7ulv1376.1.2 kv=0.2402 irradiance=1 Pmpp=23.389 %Pmpp=100 kVA=23.389 conn=wye %cutin=0.1 %cutout=0.1 Vmaxpu=1.2
New PVSystem.small_p7ulv4225_1_2_pv phases=1 bus1=p7ulv4225.1.2 kv=0.2402 irradiance=1 Pmpp=23.972 %Pmpp=100 kVA=23.972 conn=wye %cutin=0.1 %cutout=0.1 Vmaxpu=1.2
New PVSystem.small_p7ulv1417_1_2_pv phases=1 bus1=p7ulv1417.1.2 kv=0.2402 irradiance=1 Pmpp=7.713 %Pmpp=100 kVA=7.713 conn=wye %cutin=0.1 %cutout=0.1 Vmaxpu=1.2
New PVSystem.small_p7ulv1384_1_2_pv phases=1 bus1=p7ulv1384.1.2 kv=0.2402 irradiance=1 Pmpp=18.759 %Pmpp=100 kVA=18.759 conn=wye %cutin=0.1 %cutout=0.1 Vmaxpu=1.2
New PVSystem.small_p7ulv14462_1_2_pv phases=1 bus1=p7ulv14462.1.2 kv=0.2402 irradiance=1 Pmpp=4.385 %Pmpp=100 kVA=4.385 conn=wye %cutin=0.1 %cutout=0.1 Vmaxpu=1.2
New PVSystem.small_p7ulv474_1_2_pv phases=1 bus1=p7ulv474.1.2 kv=0.2402 irradiance=1 Pmpp=9.498 %Pmpp=100 kVA=9.498 conn=wye %cutin=0.1 %cutout=0.1 Vmaxpu=1.2
New PVSystem.small_p7ulv573_1_2_pv phases=1 bus1=p7ulv573.1.2 kv=0.2402 irradiance=1 Pmpp=10.586 %Pmpp=100 kVA=10.586 conn=wye %cutin=0.1 %cutout=0.1 Vmaxpu=1.2
New PVSystem.small_p7ulv4140_1_2_pv phases=1 bus1=p7ulv4140.1.2 kv=0.2402 irradiance=1 Pmpp=11.622 %Pmpp=100 kVA=11.622 conn=wye %cutin=0.1 %cutout=0.1 Vmaxpu=1.2
New PVSystem.small_p7ulv441_1_2_pv phases=1 bus1=p7ulv441.1.2 kv=0.2402 irradiance=1 Pmpp=9.597 %Pmpp=100 kVA=9.597 conn=wye %cutin=0.1 %cutout=0.1 Vmaxpu=1.2
New PVSystem.small_p7ulv11479_1_2_pv phases=1 bus1=p7ulv11479.1.2 kv=0.2402 irradiance=1 Pmpp=12.078 %Pmpp=100 kVA=12.078 conn=wye %cutin=0.1 %cutout=0.1 Vmaxpu=1.2
New PVSystem.small_p7ulv1438_1_2_pv phases=1 bus1=p7ulv1438.1.2 kv=0.2402 irradiance=1 Pmpp=11.123 %Pmpp=100 kVA=11.123 conn=wye %cutin=0.1 %cutout=0.1 Vmaxpu=1.2
New PVSystem.small_p7ulv1429_1_2_pv phases=1 bus1=p7ulv1429.1.2 kv=0.2402 irradiance=1 Pmpp=7.892 %Pmpp=100 kVA=7.892 conn=wye %cutin=0.1 %cutout=0.1 Vmaxpu=1.2
New PVSystem.small_p7ulv48_1_2_pv phases=1 bus1=p7ulv48.1.2 kv=0.2402 irradiance=1 Pmpp=6.212 %Pmpp=100 kVA=6.212 conn=wye %cutin=0.1 %cutout=0.1 Vmaxpu=1.2
New PVSystem.small_p7ulv14443_1_2_pv phases=1 bus1=p7ulv14443.1.2 kv=0.2402 irradiance=1 Pmpp=3.242 %Pmpp=100 kVA=3.242 conn=wye %cutin=0.1 %cutout=0.1 Vmaxpu=1.2
New PVSystem.small_p7ulv4093_1_2_pv phases=1 bus1=p7ulv4093.1.2 kv=0.2402 irradiance=1 Pmpp=6.96 %Pmpp=100 kVA=6.96 conn=wye %cutin=0.1 %cutout=0.1 Vmaxpu=1.2
New PVSystem.small_p7ulv27167_1_2_pv phases=1 bus1=p7ulv27167.1.2 kv=0.2402 irradiance=1 Pmpp=14.4 %Pmpp=100 kVA=14.4 conn=wye %cutin=0.1 %cutout=0.1 Vmaxpu=1.2
New PVSystem.small_p7ulv7309_1_2_pv phases=1 bus1=p7ulv7309.1.2 kv=0.2402 irradiance=1 Pmpp=11.36 %Pmpp=100 kVA=11.36 conn=wye %cutin=0.1 %cutout=0.1 Vmaxpu=1.2
New PVSystem.small_p7ulv27402_1_2_pv phases=1 bus1=p7ulv27402.1.2 kv=0.2402 irradiance=1 Pmpp=15.118 %Pmpp=100 kVA=15.118 conn=wye %cutin=0.1 %cutout=0.1 Vmaxpu=1.2
New PVSystem.small_p7ulv27346_1_2_pv phases=1 bus1=p7ulv27346.1.2 kv=0.2402 irradiance=1 Pmpp=11.646 %Pmpp=100 kVA=11.646 conn=wye %cutin=0.1 %cutout=0.1 Vmaxpu=1.2
New PVSystem.small_p7ulv27447_1_2_pv phases=1 bus1=p7ulv27447.1.2 kv=0.2402 irradiance=1 Pmpp=29.196 %Pmpp=100 kVA=29.196 conn=wye %cutin=0.1 %cutout=0.1 Vmaxpu=1.2
New PVSystem.small_p7ulv14536_1_2_pv phases=1 bus1=p7ulv14536.1.2 kv=0.2402 irradiance=1 Pmpp=36.869 %Pmpp=100 kVA=36.869 conn=wye %cutin=0.1 %cutout=0.1 Vmaxpu=1.2
New PVSystem.small_p7ulv11525_1_2_pv phases=1 bus1=p7ulv11525.1.2 kv=0.2402 irradiance=1 Pmpp=15.165 %Pmpp=100 kVA=15.165 conn=wye %cutin=0.1 %cutout=0.1 Vmaxpu=1.2
New PVSystem.small_p7ulv33_1_2_pv phases=1 bus1=p7ulv33.1.2 kv=0.2402 irradiance=1 Pmpp=17.732 %Pmpp=100 kVA=17.732 conn=wye %cutin=0.1 %cutout=0.1 Vmaxpu=1.2
New PVSystem.small_p7ulv27494_1_2_pv phases=1 bus1=p7ulv27494.1.2 kv=0.2402 irradiance=1 Pmpp=11.668 %Pmpp=100 kVA=11.668 conn=wye %cutin=0.1 %cutout=0.1 Vmaxpu=1.2
New PVSystem.small_p7ulv11604_1_2_pv phases=1 bus1=p7ulv11604.1.2 kv=0.2402 irradiance=1 Pmpp=4.153 %Pmpp=100 kVA=4.153 conn=wye %cutin=0.1 %cutout=0.1 Vmaxpu=1.2
New PVSystem.small_p7ulv455_1_2_pv phases=1 bus1=p7ulv455.1.2 kv=0.2402 irradiance=1 Pmpp=2.043 %Pmpp=100 kVA=2.043 conn=wye %cutin=0.1 %cutout=0.1 Vmaxpu=1.2
New PVSystem.small_p7ulv12429_1_2_pv phases=1 bus1=p7ulv12429.1.2 kv=0.2402 irradiance=1 Pmpp=4.844 %Pmpp=100 kVA=4.844 conn=wye %cutin=0.1 %cutout=0.1 Vmaxpu=1.2
New PVSystem.small_p7ulv6800_1_2_pv phases=1 bus1=p7ulv6800.1.2 kv=0.2402 irradiance=1 Pmpp=24.849 %Pmpp=100 kVA=24.849 conn=wye %cutin=0.1 %cutout=0.1 Vmaxpu=1.2
New PVSystem.small_p7ulv27311_1_2_pv phases=1 bus1=p7ulv27311.1.2 kv=0.2402 irradiance=1 Pmpp=12.288 %Pmpp=100 kVA=12.288 conn=wye %cutin=0.1 %cutout=0.1 Vmaxpu=1.2
New PVSystem.small_p7ulv27463_1_2_pv phases=1 bus1=p7ulv27463.1.2 kv=0.2402 irradiance=1 Pmpp=61.185 %Pmpp=100 kVA=61.185 conn=wye %cutin=0.1 %cutout=0.1 Vmaxpu=1.2
New PVSystem.small_p7ulv27316_1_2_pv phases=1 bus1=p7ulv27316.1.2 kv=0.2402 irradiance=1 Pmpp=17.336 %Pmpp=100 kVA=17.336 conn=wye %cutin=0.1 %cutout=0.1 Vmaxpu=1.2
New PVSystem.small_p7ulv27287_1_2_pv phases=1 bus1=p7ulv27287.1.2 kv=0.2402 irradiance=1 Pmpp=26.13 %Pmpp=100 kVA=26.13 conn=wye %cutin=0.1 %cutout=0.1 Vmaxpu=1.2
New PVSystem.small_p7ulv452_1_2_pv phases=1 bus1=p7ulv452.1.2 kv=0.2402 irradiance=1 Pmpp=25.739 %Pmpp=100 kVA=25.739 conn=wye %cutin=0.1 %cutout=0.1 Vmaxpu=1.2
New PVSystem.small_p7ulv46_1_2_pv phases=1 bus1=p7ulv46.1.2 kv=0.2402 irradiance=1 Pmpp=9.347 %Pmpp=100 kVA=9.347 conn=wye %cutin=0.1 %cutout=0.1 Vmaxpu=1.2
New PVSystem.small_p7ulv1433_1_2_pv phases=1 bus1=p7ulv1433.1.2 kv=0.2402 irradiance=1 Pmpp=11.622 %Pmpp=100 kVA=11.622 conn=wye %cutin=0.1 %cutout=0.1 Vmaxpu=1.2
New PVSystem.small_p7ulv11574_1_2_pv phases=1 bus1=p7ulv11574.1.2 kv=0.2402 irradiance=1 Pmpp=2.843 %Pmpp=100 kVA=2.843 conn=wye %cutin=0.1 %cutout=0.1 Vmaxpu=1.2
New PVSystem.small_p7ulv27135_1_2_pv phases=1 bus1=p7ulv27135.1.2 kv=0.2402 irradiance=1 Pmpp=22.57 %Pmpp=100 kVA=22.57 conn=wye %cutin=0.1 %cutout=0.1 Vmaxpu=1.2
New PVSystem.small_p7ulv14574_1_2_pv phases=1 bus1=p7ulv14574.1.2 kv=0.2402 irradiance=1 Pmpp=58.053 %Pmpp=100 kVA=58.053 conn=wye %cutin=0.1 %cutout=0.1 Vmaxpu=1.2
New PVSystem.small_p7ulv27414_1_2_pv phases=1 bus1=p7ulv27414.1.2 kv=0.2402 irradiance=1 Pmpp=5.799 %Pmpp=100 kVA=5.799 conn=wye %cutin=0.1 %cutout=0.1 Vmaxpu=1.2
New PVSystem.small_p7ulv4160_1_2_pv phases=1 bus1=p7ulv4160.1.2 kv=0.2402 irradiance=1 Pmpp=14.146 %Pmpp=100 kVA=14.146 conn=wye %cutin=0.1 %cutout=0.1 Vmaxpu=1.2
New PVSystem.small_p7ulv4166_1_2_pv phases=1 bus1=p7ulv4166.1.2 kv=0.2402 irradiance=1 Pmpp=17.432 %Pmpp=100 kVA=17.432 conn=wye %cutin=0.1 %cutout=0.1 Vmaxpu=1.2
New PVSystem.small_p7ulv1425_1_2_pv phases=1 bus1=p7ulv1425.1.2 kv=0.2402 irradiance=1 Pmpp=16.403 %Pmpp=100 kVA=16.403 conn=wye %cutin=0.1 %cutout=0.1 Vmaxpu=1.2
New PVSystem.small_p7ulv12454_1_2_pv phases=1 bus1=p7ulv12454.1.2 kv=0.2402 irradiance=1 Pmpp=15.494 %Pmpp=100 kVA=15.494 conn=wye %cutin=0.1 %cutout=0.1 Vmaxpu=1.2
New PVSystem.small_p7ulv1430_1_2_pv phases=1 bus1=p7ulv1430.1.2 kv=0.2402 irradiance=1 Pmpp=9.859 %Pmpp=100 kVA=9.859 conn=wye %cutin=0.1 %cutout=0.1 Vmaxpu=1.2
New PVSystem.small_p7ulv565_1_2_pv phases=1 bus1=p7ulv565.1.2 kv=0.2402 irradiance=1 Pmpp=25.393 %Pmpp=100 kVA=25.393 conn=wye %cutin=0.1 %cutout=0.1 Vmaxpu=1.2
New PVSystem.small_p7ulv11488_1_2_pv phases=1 bus1=p7ulv11488.1.2 kv=0.2402 irradiance=1 Pmpp=28.991 %Pmpp=100 kVA=28.991 conn=wye %cutin=0.1 %cutout=0.1 Vmaxpu=1.2
New PVSystem.small_p7ulv27484_1_2_pv phases=1 bus1=p7ulv27484.1.2 kv=0.2402 irradiance=1 Pmpp=6.451 %Pmpp=100 kVA=6.451 conn=wye %cutin=0.1 %cutout=0.1 Vmaxpu=1.2
New PVSystem.small_p7ulv1397_1_2_pv phases=1 bus1=p7ulv1397.1.2 kv=0.2402 irradiance=1 Pmpp=5.901 %Pmpp=100 kVA=5.901 conn=wye %cutin=0.1 %cutout=0.1 Vmaxpu=1.2
New PVSystem.small_p7ulv4149_1_2_pv phases=1 bus1=p7ulv4149.1.2 kv=0.2402 irradiance=1 Pmpp=12.91 %Pmpp=100 kVA=12.91 conn=wye %cutin=0.1 %cutout=0.1 Vmaxpu=1.2
New PVSystem.small_p7ulv27169_1_2_pv phases=1 bus1=p7ulv27169.1.2 kv=0.2402 irradiance=1 Pmpp=25.354 %Pmpp=100 kVA=25.354 conn=wye %cutin=0.1 %cutout=0.1 Vmaxpu=1.2
New PVSystem.small_p7ulv27462_1_2_pv phases=1 bus1=p7ulv27462.1.2 kv=0.2402 irradiance=1 Pmpp=7.8 %Pmpp=100 kVA=7.8 conn=wye %cutin=0.1 %cutout=0.1 Vmaxpu=1.2
New PVSystem.small_p7ulv1416_1_2_pv phases=1 bus1=p7ulv1416.1.2 kv=0.2402 irradiance=1 Pmpp=15.951 %Pmpp=100 kVA=15.951 conn=wye %cutin=0.1 %cutout=0.1 Vmaxpu=1.2
New PVSystem.small_p7ulv3649_1_2_pv phases=1 bus1=p7ulv3649.1.2 kv=0.2402 irradiance=1 Pmpp=7.822 %Pmpp=100 kVA=7.822 conn=wye %cutin=0.1 %cutout=0.1 Vmaxpu=1.2
New PVSystem.small_p7ulv27258_1_2_pv phases=1 bus1=p7ulv27258.1.2 kv=0.2402 irradiance=1 Pmpp=12.598 %Pmpp=100 kVA=12.598 conn=wye %cutin=0.1 %cutout=0.1 Vmaxpu=1.2
New PVSystem.small_p7ulv75_1_2_pv phases=1 bus1=p7ulv75.1.2 kv=0.2402 irradiance=1 Pmpp=3.316 %Pmpp=100 kVA=3.316 conn=wye %cutin=0.1 %cutout=0.1 Vmaxpu=1.2
New PVSystem.small_p7ulv4217_1_2_pv phases=1 bus1=p7ulv4217.1.2 kv=0.2402 irradiance=1 Pmpp=11.36 %Pmpp=100 kVA=11.36 conn=wye %cutin=0.1 %cutout=0.1 Vmaxpu=1.2
New PVSystem.small_p7ulv27333_1_2_pv phases=1 bus1=p7ulv27333.1.2 kv=0.2402 irradiance=1 Pmpp=31.79 %Pmpp=100 kVA=31.79 conn=wye %cutin=0.1 %cutout=0.1 Vmaxpu=1.2
New PVSystem.small_p7ulv4110_1_2_pv phases=1 bus1=p7ulv4110.1.2 kv=0.2402 irradiance=1 Pmpp=27.277 %Pmpp=100 kVA=27.277 conn=wye %cutin=0.1 %cutout=0.1 Vmaxpu=1.2
New PVSystem.small_p7ulv1374_1_2_pv phases=1 bus1=p7ulv1374.1.2 kv=0.2402 irradiance=1 Pmpp=32.495 %Pmpp=100 kVA=32.495 conn=wye %cutin=0.1 %cutout=0.1 Vmaxpu=1.2
New PVSystem.small_p7ulv471_1_2_pv phases=1 bus1=p7ulv471.1.2 kv=0.2402 irradiance=1 Pmpp=29.316 %Pmpp=100 kVA=29.316 conn=wye %cutin=0.1 %cutout=0.1 Vmaxpu=1.2
New PVSystem.small_p7ulv57_1_2_pv phases=1 bus1=p7ulv57.1.2 kv=0.2402 irradiance=1 Pmpp=11.574 %Pmpp=100 kVA=11.574 conn=wye %cutin=0.1 %cutout=0.1 Vmaxpu=1.2
New PVSystem.small_p7ulv27514_1_2_pv phases=1 bus1=p7ulv27514.1.2 kv=0.2402 irradiance=1 Pmpp=9.269 %Pmpp=100 kVA=9.269 conn=wye %cutin=0.1 %cutout=0.1 Vmaxpu=1.2
New PVSystem.small_p7ulv472_1_2_pv phases=1 bus1=p7ulv472.1.2 kv=0.2402 irradiance=1 Pmpp=11.352 %Pmpp=100 kVA=11.352 conn=wye %cutin=0.1 %cutout=0.1 Vmaxpu=1.2
New PVSystem.small_p7ulv7282_1_2_pv phases=1 bus1=p7ulv7282.1.2 kv=0.2402 irradiance=1 Pmpp=34.885 %Pmpp=100 kVA=34.885 conn=wye %cutin=0.1 %cutout=0.1 Vmaxpu=1.2
New PVSystem.small_p7ulv11542_1_2_pv phases=1 bus1=p7ulv11542.1.2 kv=0.2402 irradiance=1 Pmpp=13.519 %Pmpp=100 kVA=13.519 conn=wye %cutin=0.1 %cutout=0.1 Vmaxpu=1.2
New PVSystem.small_p7ulv4204_1_2_pv phases=1 bus1=p7ulv4204.1.2 kv=0.2402 irradiance=1 Pmpp=29.196 %Pmpp=100 kVA=29.196 conn=wye %cutin=0.1 %cutout=0.1 Vmaxpu=1.2
New PVSystem.small_p7ulv3914_1_2_pv phases=1 bus1=p7ulv3914.1.2 kv=0.2402 irradiance=1 Pmpp=9.789 %Pmpp=100 kVA=9.789 conn=wye %cutin=0.1 %cutout=0.1 Vmaxpu=1.2
New PVSystem.small_p7ulv438_1_2_pv phases=1 bus1=p7ulv438.1.2 kv=0.2402 irradiance=1 Pmpp=10.682 %Pmpp=100 kVA=10.682 conn=wye %cutin=0.1 %cutout=0.1 Vmaxpu=1.2
New PVSystem.small_p7ulv26_1_2_pv phases=1 bus1=p7ulv26.1.2 kv=0.2402 irradiance=1 Pmpp=37.638 %Pmpp=100 kVA=37.638 conn=wye %cutin=0.1 %cutout=0.1 Vmaxpu=1.2
New PVSystem.small_p7ulv4144_1_2_pv phases=1 bus1=p7ulv4144.1.2 kv=0.2402 irradiance=1 Pmpp=22.456 %Pmpp=100 kVA=22.456 conn=wye %cutin=0.1 %cutout=0.1 Vmaxpu=1.2
New PVSystem.small_p7ulv27444_1_2_pv phases=1 bus1=p7ulv27444.1.2 kv=0.2402 irradiance=1 Pmpp=8.251 %Pmpp=100 kVA=8.251 conn=wye %cutin=0.1 %cutout=0.1 Vmaxpu=1.2
New PVSystem.small_p7ulv31_1_2_pv phases=1 bus1=p7ulv31.1.2 kv=0.2402 irradiance=1 Pmpp=4.373 %Pmpp=100 kVA=4.373 conn=wye %cutin=0.1 %cutout=0.1 Vmaxpu=1.2
New PVSystem.small_p7ulv38_1_2_pv phases=1 bus1=p7ulv38.1.2 kv=0.2402 irradiance=1 Pmpp=7.81 %Pmpp=100 kVA=7.81 conn=wye %cutin=0.1 %cutout=0.1 Vmaxpu=1.2
New PVSystem.small_p7ulv451_1_2_pv phases=1 bus1=p7ulv451.1.2 kv=0.2402 irradiance=1 Pmpp=10.687 %Pmpp=100 kVA=10.687 conn=wye %cutin=0.1 %cutout=0.1 Vmaxpu=1.2
New PVSystem.small_p7ulv62_1_2_pv phases=1 bus1=p7ulv62.1.2 kv=0.2402 irradiance=1 Pmpp=44.122 %Pmpp=100 kVA=44.122 conn=wye %cutin=0.1 %cutout=0.1 Vmaxpu=1.2
New PVSystem.small_p7ulv1391_1_2_pv phases=1 bus1=p7ulv1391.1.2 kv=0.2402 irradiance=1 Pmpp=5.192 %Pmpp=100 kVA=5.192 conn=wye %cutin=0.1 %cutout=0.1 Vmaxpu=1.2
New PVSystem.small_p7ulv11540_1_2_pv phases=1 bus1=p7ulv11540.1.2 kv=0.2402 irradiance=1 Pmpp=16.109 %Pmpp=100 kVA=16.109 conn=wye %cutin=0.1 %cutout=0.1 Vmaxpu=1.2
New PVSystem.small_p7ulv44_1_2_pv phases=1 bus1=p7ulv44.1.2 kv=0.2402 irradiance=1 Pmpp=43.404 %Pmpp=100 kVA=43.404 conn=wye %cutin=0.1 %cutout=0.1 Vmaxpu=1.2

Solve
